Circuit: * Z:\home\olivier\projects\S4APP4\add3b_test.asc

WARNING: Node X1:X3:N001 is floating.
WARNING: Node X1:X3:N002 is floating.
WARNING: Node X1:X3:N003 is floating.
WARNING: Node X1:X3:N005 is floating.
WARNING: Node X1:X4:N001 is floating.
WARNING: Node X1:X4:N002 is floating.
WARNING: Node X1:X4:N003 is floating.
WARNING: Node X1:X4:N005 is floating.
WARNING: Node X1:X6:N001 is floating.
WARNING: Node X1:X6:N002 is floating.
WARNING: Node X1:X6:N003 is floating.
WARNING: Node X1:X6:N005 is floating.
WARNING: Node X1:X13:N001 is floating.
WARNING: Node X1:X13:N002 is floating.
WARNING: Node X1:X13:N003 is floating.
WARNING: Node X1:X13:N005 is floating.
WARNING: Node X1:X14:N001 is floating.
WARNING: Node X1:X14:N002 is floating.
WARNING: Node X1:X14:N003 is floating.
WARNING: Node X1:X14:N005 is floating.
WARNING: Node X1:X15:N001 is floating.
WARNING: Node X1:X15:N002 is floating.
WARNING: Node X1:X15:N003 is floating.
WARNING: Node X1:X15:N005 is floating.
WARNING: Node X1:X18:N001 is floating.
WARNING: Node X1:X18:N002 is floating.
WARNING: Node X1:X18:N003 is floating.
WARNING: Node X1:X18:N005 is floating.
WARNING: Node X1:X19:N001 is floating.
WARNING: Node X1:X19:N002 is floating.
WARNING: Node X1:X19:N003 is floating.
WARNING: Node X1:X19:N005 is floating.
WARNING: Node X1:X20:N001 is floating.
WARNING: Node X1:X20:N002 is floating.
WARNING: Node X1:X20:N003 is floating.
WARNING: Node X1:X20:N005 is floating.

WARNING: Less than two connections to node SEL.  This node is used by VSEL.
WARNING: Less than two connections to node X1:X3:N001.  This node is used by M:X1:X3:1.
WARNING: Less than two connections to node X1:X3:N002.  This node is used by M:X1:X3:3.
WARNING: Less than two connections to node X1:X3:N003.  This node is used by M:X1:X3:2.
WARNING: Less than two connections to node X1:X3:N005.  This node is used by M:X1:X3:4.
WARNING: Less than two connections to node X1:X4:N001.  This node is used by M:X1:X4:1.
WARNING: Less than two connections to node X1:X4:N002.  This node is used by M:X1:X4:3.
WARNING: Less than two connections to node X1:X4:N003.  This node is used by M:X1:X4:2.
WARNING: Less than two connections to node X1:X4:N005.  This node is used by M:X1:X4:4.
WARNING: Less than two connections to node X1:X6:N001.  This node is used by M:X1:X6:1.
WARNING: Less than two connections to node X1:X6:N002.  This node is used by M:X1:X6:3.
WARNING: Less than two connections to node X1:X6:N003.  This node is used by M:X1:X6:2.
WARNING: Less than two connections to node X1:X6:N005.  This node is used by M:X1:X6:4.
WARNING: Less than two connections to node X1:X13:N001.  This node is used by M:X1:X13:1.
WARNING: Less than two connections to node X1:X13:N002.  This node is used by M:X1:X13:3.
WARNING: Less than two connections to node X1:X13:N003.  This node is used by M:X1:X13:2.
WARNING: Less than two connections to node X1:X13:N005.  This node is used by M:X1:X13:4.
WARNING: Less than two connections to node X1:X14:N001.  This node is used by M:X1:X14:1.
WARNING: Less than two connections to node X1:X14:N002.  This node is used by M:X1:X14:3.
WARNING: Less than two connections to node X1:X14:N003.  This node is used by M:X1:X14:2.
WARNING: Less than two connections to node X1:X14:N005.  This node is used by M:X1:X14:4.
WARNING: Less than two connections to node X1:X15:N001.  This node is used by M:X1:X15:1.
WARNING: Less than two connections to node X1:X15:N002.  This node is used by M:X1:X15:3.
WARNING: Less than two connections to node X1:X15:N003.  This node is used by M:X1:X15:2.
WARNING: Less than two connections to node X1:X15:N005.  This node is used by M:X1:X15:4.
WARNING: Less than two connections to node X1:X18:N001.  This node is used by M:X1:X18:1.
WARNING: Less than two connections to node X1:X18:N002.  This node is used by M:X1:X18:3.
WARNING: Less than two connections to node X1:X18:N003.  This node is used by M:X1:X18:2.
WARNING: Less than two connections to node X1:X18:N005.  This node is used by M:X1:X18:4.
WARNING: Less than two connections to node X1:X19:N001.  This node is used by M:X1:X19:1.
WARNING: Less than two connections to node X1:X19:N002.  This node is used by M:X1:X19:3.
WARNING: Less than two connections to node X1:X19:N003.  This node is used by M:X1:X19:2.
WARNING: Less than two connections to node X1:X19:N005.  This node is used by M:X1:X19:4.
WARNING: Less than two connections to node X1:X20:N001.  This node is used by M:X1:X20:1.
WARNING: Less than two connections to node X1:X20:N002.  This node is used by M:X1:X20:3.
WARNING: Less than two connections to node X1:X20:N003.  This node is used by M:X1:X20:2.
WARNING: Less than two connections to node X1:X20:N005.  This node is used by M:X1:X20:4.

Date: Tue Mar 19 14:37:13 2024
Total elapsed time: 0.132 seconds.

tnom = 27
temp = 27
method = trap
totiter = 212
traniter = 0
tranpoints = 0
accept = 0
rejected = 0
matrix size = 118
fillins = 214
solver = Normal

