Circuit: * Z:\home\olivier\projects\S4APP4\alu_test_trans.asc

Questionable use of curly braces in "m1 _q in vss vss nmos l={ll} w={wn} ad={450n*{wn}} as={450n*{wn}} pd={900n+{wn}} ps={1080n+{wn}}"
    Error: undefined symbol in: "[ll]"
Questionable use of curly braces in "m2 vdd in _q vdd pmos l={ll} w={wp} ad={450n*{wp}} as={450n*{wp}} pd={900n+{wp}} ps={1080n+{wp}}"
    Error: undefined symbol in: "[ll]"
Questionable use of curly braces in "m1 _q in vss vss nmos l={ll} w={wn} ad={450n*{wn}} as={450n*{wn}} pd={900n+{wn}} ps={1080n+{wn}}"
    Error: undefined symbol in: "[ll]"
Questionable use of curly braces in "m2 vdd in _q vdd pmos l={ll} w={wp} ad={450n*{wp}} as={450n*{wp}} pd={900n+{wp}} ps={1080n+{wp}}"
    Error: undefined symbol in: "[ll]"
Questionable use of curly braces in "m1 _q in vss vss nmos l={ll} w={wn} ad={450n*{wn}} as={450n*{wn}} pd={900n+{wn}} ps={1080n+{wn}}"
    Error: undefined symbol in: "[ll]"
Questionable use of curly braces in "m2 vdd in _q vdd pmos l={ll} w={wp} ad={450n*{wp}} as={450n*{wp}} pd={900n+{wp}} ps={1080n+{wp}}"
    Error: undefined symbol in: "[ll]"
Questionable use of curly braces in "m1 _q in vss vss nmos l={ll} w={wn} ad={450n*{wn}} as={450n*{wn}} pd={900n+{wn}} ps={1080n+{wn}}"
    Error: undefined symbol in: "[ll]"
Questionable use of curly braces in "m2 vdd in _q vdd pmos l={ll} w={wp} ad={450n*{wp}} as={450n*{wp}} pd={900n+{wp}} ps={1080n+{wp}}"
    Error: undefined symbol in: "[ll]"
Questionable use of curly braces in "m1 _q in vss vss nmos l={ll} w={wn} ad={450n*{wn}} as={450n*{wn}} pd={900n+{wn}} ps={1080n+{wn}}"
    Error: undefined symbol in: "[ll]"
Questionable use of curly braces in "m2 vdd in _q vdd pmos l={ll} w={wp} ad={450n*{wp}} as={450n*{wp}} pd={900n+{wp}} ps={1080n+{wp}}"
    Error: undefined symbol in: "[ll]"
Questionable use of curly braces in "m1 _q in vss vss nmos l={ll} w={wn} ad={450n*{wn}} as={450n*{wn}} pd={900n+{wn}} ps={1080n+{wn}}"
    Error: undefined symbol in: "[ll]"
Questionable use of curly braces in "m2 vdd in _q vdd pmos l={ll} w={wp} ad={450n*{wp}} as={450n*{wp}} pd={900n+{wp}} ps={1080n+{wp}}"
    Error: undefined symbol in: "[ll]"
Questionable use of curly braces in "m1 _q in vss vss nmos l={ll} w={wn} ad={450n*{wn}} as={450n*{wn}} pd={900n+{wn}} ps={1080n+{wn}}"
    Error: undefined symbol in: "[ll]"
Questionable use of curly braces in "m2 vdd in _q vdd pmos l={ll} w={wp} ad={450n*{wp}} as={450n*{wp}} pd={900n+{wp}} ps={1080n+{wp}}"
    Error: undefined symbol in: "[ll]"
Questionable use of curly braces in "m1 _q in vss vss nmos l={ll} w={wn} ad={450n*{wn}} as={450n*{wn}} pd={900n+{wn}} ps={1080n+{wn}}"
    Error: undefined symbol in: "[ll]"
Questionable use of curly braces in "m2 vdd in _q vdd pmos l={ll} w={wp} ad={450n*{wp}} as={450n*{wp}} pd={900n+{wp}} ps={1080n+{wp}}"
    Error: undefined symbol in: "[ll]"
Questionable use of curly braces in "m1 _q in vss vss nmos l={ll} w={wn} ad={450n*{wn}} as={450n*{wn}} pd={900n+{wn}} ps={1080n+{wn}}"
    Error: undefined symbol in: "[ll]"
Questionable use of curly braces in "m2 vdd in _q vdd pmos l={ll} w={wp} ad={450n*{wp}} as={450n*{wp}} pd={900n+{wp}} ps={1080n+{wp}}"
    Error: undefined symbol in: "[ll]"
Questionable use of curly braces in "m1 _q in vss vss nmos l={ll} w={wn} ad={450n*{wn}} as={450n*{wn}} pd={900n+{wn}} ps={1080n+{wn}}"
    Error: undefined symbol in: "[ll]"
Questionable use of curly braces in "m2 vdd in _q vdd pmos l={ll} w={wp} ad={450n*{wp}} as={450n*{wp}} pd={900n+{wp}} ps={1080n+{wp}}"
    Error: undefined symbol in: "[ll]"
Questionable use of curly braces in "m1 _q in vss vss nmos l={ll} w={wn} ad={450n*{wn}} as={450n*{wn}} pd={900n+{wn}} ps={1080n+{wn}}"
    Error: undefined symbol in: "[ll]"
Questionable use of curly braces in "m2 vdd in _q vdd pmos l={ll} w={wp} ad={450n*{wp}} as={450n*{wp}} pd={900n+{wp}} ps={1080n+{wp}}"
    Error: undefined symbol in: "[ll]"
Questionable use of curly braces in "m1 _q in vss vss nmos l={ll} w={wn} ad={450n*{wn}} as={450n*{wn}} pd={900n+{wn}} ps={1080n+{wn}}"
    Error: undefined symbol in: "[ll]"
Questionable use of curly braces in "m2 vdd in _q vdd pmos l={ll} w={wp} ad={450n*{wp}} as={450n*{wp}} pd={900n+{wp}} ps={1080n+{wp}}"
    Error: undefined symbol in: "[ll]"
Questionable use of curly braces in "m1 _q in vss vss nmos l={ll} w={wn} ad={450n*{wn}} as={450n*{wn}} pd={900n+{wn}} ps={1080n+{wn}}"
    Error: undefined symbol in: "[ll]"
Questionable use of curly braces in "m2 vdd in _q vdd pmos l={ll} w={wp} ad={450n*{wp}} as={450n*{wp}} pd={900n+{wp}} ps={1080n+{wp}}"
    Error: undefined symbol in: "[ll]"
Questionable use of curly braces in "m1 _q in vss vss nmos l={ll} w={wn} ad={450n*{wn}} as={450n*{wn}} pd={900n+{wn}} ps={1080n+{wn}}"
    Error: undefined symbol in: "[ll]"
Questionable use of curly braces in "m2 vdd in _q vdd pmos l={ll} w={wp} ad={450n*{wp}} as={450n*{wp}} pd={900n+{wp}} ps={1080n+{wp}}"
    Error: undefined symbol in: "[ll]"
Questionable use of curly braces in "m1 _q in vss vss nmos l={ll} w={wn} ad={450n*{wn}} as={450n*{wn}} pd={900n+{wn}} ps={1080n+{wn}}"
    Error: undefined symbol in: "[ll]"
Questionable use of curly braces in "m2 vdd in _q vdd pmos l={ll} w={wp} ad={450n*{wp}} as={450n*{wp}} pd={900n+{wp}} ps={1080n+{wp}}"
    Error: undefined symbol in: "[ll]"
Questionable use of curly braces in "m1 _q in vss vss nmos l={ll} w={wn} ad={450n*{wn}} as={450n*{wn}} pd={900n+{wn}} ps={1080n+{wn}}"
    Error: undefined symbol in: "[ll]"
Questionable use of curly braces in "m2 vdd in _q vdd pmos l={ll} w={wp} ad={450n*{wp}} as={450n*{wp}} pd={900n+{wp}} ps={1080n+{wp}}"
    Error: undefined symbol in: "[ll]"
Questionable use of curly braces in "m1 _q in vss vss nmos l={ll} w={wn} ad={450n*{wn}} as={450n*{wn}} pd={900n+{wn}} ps={1080n+{wn}}"
    Error: undefined symbol in: "[ll]"
Questionable use of curly braces in "m2 vdd in _q vdd pmos l={ll} w={wp} ad={450n*{wp}} as={450n*{wp}} pd={900n+{wp}} ps={1080n+{wp}}"
    Error: undefined symbol in: "[ll]"
Questionable use of curly braces in "m1 _q in vss vss nmos l={ll} w={wn} ad={450n*{wn}} as={450n*{wn}} pd={900n+{wn}} ps={1080n+{wn}}"
    Error: undefined symbol in: "[ll]"
Questionable use of curly braces in "m2 vdd in _q vdd pmos l={ll} w={wp} ad={450n*{wp}} as={450n*{wp}} pd={900n+{wp}} ps={1080n+{wp}}"
    Error: undefined symbol in: "[ll]"
Questionable use of curly braces in "m1 _q in vss vss nmos l={ll} w={wn} ad={450n*{wn}} as={450n*{wn}} pd={900n+{wn}} ps={1080n+{wn}}"
    Error: undefined symbol in: "[ll]"
Questionable use of curly braces in "m2 vdd in _q vdd pmos l={ll} w={wp} ad={450n*{wp}} as={450n*{wp}} pd={900n+{wp}} ps={1080n+{wp}}"
    Error: undefined symbol in: "[ll]"
Questionable use of curly braces in "m1 _q in vss vss nmos l={ll} w={wn} ad={450n*{wn}} as={450n*{wn}} pd={900n+{wn}} ps={1080n+{wn}}"
    Error: undefined symbol in: "[ll]"
Questionable use of curly braces in "m2 vdd in _q vdd pmos l={ll} w={wp} ad={450n*{wp}} as={450n*{wp}} pd={900n+{wp}} ps={1080n+{wp}}"
    Error: undefined symbol in: "[ll]"
Questionable use of curly braces in "m1 _q in vss vss nmos l={ll} w={wn} ad={450n*{wn}} as={450n*{wn}} pd={900n+{wn}} ps={1080n+{wn}}"
    Error: undefined symbol in: "[ll]"
Questionable use of curly braces in "m2 vdd in _q vdd pmos l={ll} w={wp} ad={450n*{wp}} as={450n*{wp}} pd={900n+{wp}} ps={1080n+{wp}}"
    Error: undefined symbol in: "[ll]"
Questionable use of curly braces in "m1 _q in vss vss nmos l={ll} w={wn} ad={450n*{wn}} as={450n*{wn}} pd={900n+{wn}} ps={1080n+{wn}}"
    Error: undefined symbol in: "[ll]"
Questionable use of curly braces in "m2 vdd in _q vdd pmos l={ll} w={wp} ad={450n*{wp}} as={450n*{wp}} pd={900n+{wp}} ps={1080n+{wp}}"
    Error: undefined symbol in: "[ll]"
Questionable use of curly braces in "m1 _q in vss vss nmos l={ll} w={wn} ad={450n*{wn}} as={450n*{wn}} pd={900n+{wn}} ps={1080n+{wn}}"
    Error: undefined symbol in: "[ll]"
Questionable use of curly braces in "m2 vdd in _q vdd pmos l={ll} w={wp} ad={450n*{wp}} as={450n*{wp}} pd={900n+{wp}} ps={1080n+{wp}}"
    Error: undefined symbol in: "[ll]"
Questionable use of curly braces in "m1 _q in vss vss nmos l={ll} w={wn} ad={450n*{wn}} as={450n*{wn}} pd={900n+{wn}} ps={1080n+{wn}}"
    Error: undefined symbol in: "[ll]"
Questionable use of curly braces in "m2 vdd in _q vdd pmos l={ll} w={wp} ad={450n*{wp}} as={450n*{wp}} pd={900n+{wp}} ps={1080n+{wp}}"
    Error: undefined symbol in: "[ll]"
Questionable use of curly braces in "m1 _q in vss vss nmos l={ll} w={wn} ad={450n*{wn}} as={450n*{wn}} pd={900n+{wn}} ps={1080n+{wn}}"
    Error: undefined symbol in: "[ll]"
Questionable use of curly braces in "m2 vdd in _q vdd pmos l={ll} w={wp} ad={450n*{wp}} as={450n*{wp}} pd={900n+{wp}} ps={1080n+{wp}}"
    Error: undefined symbol in: "[ll]"
Questionable use of curly braces in "m1 _q in vss vss nmos l={ll} w={wn} ad={450n*{wn}} as={450n*{wn}} pd={900n+{wn}} ps={1080n+{wn}}"
    Error: undefined symbol in: "[ll]"
Questionable use of curly braces in "m2 vdd in _q vdd pmos l={ll} w={wp} ad={450n*{wp}} as={450n*{wp}} pd={900n+{wp}} ps={1080n+{wp}}"
    Error: undefined symbol in: "[ll]"
Questionable use of curly braces in "m1 _q in vss vss nmos l={ll} w={wn} ad={450n*{wn}} as={450n*{wn}} pd={900n+{wn}} ps={1080n+{wn}}"
    Error: undefined symbol in: "[ll]"
Questionable use of curly braces in "m2 vdd in _q vdd pmos l={ll} w={wp} ad={450n*{wp}} as={450n*{wp}} pd={900n+{wp}} ps={1080n+{wp}}"
    Error: undefined symbol in: "[ll]"
Questionable use of curly braces in "m1 _q in vss vss nmos l={ll} w={wn} ad={450n*{wn}} as={450n*{wn}} pd={900n+{wn}} ps={1080n+{wn}}"
    Error: undefined symbol in: "[ll]"
Questionable use of curly braces in "m2 vdd in _q vdd pmos l={ll} w={wp} ad={450n*{wp}} as={450n*{wp}} pd={900n+{wp}} ps={1080n+{wp}}"
    Error: undefined symbol in: "[ll]"
Questionable use of curly braces in "m1 _q in vss vss nmos l={ll} w={wn} ad={450n*{wn}} as={450n*{wn}} pd={900n+{wn}} ps={1080n+{wn}}"
    Error: undefined symbol in: "[ll]"
Questionable use of curly braces in "m2 vdd in _q vdd pmos l={ll} w={wp} ad={450n*{wp}} as={450n*{wp}} pd={900n+{wp}} ps={1080n+{wp}}"
    Error: undefined symbol in: "[ll]"
Questionable use of curly braces in "m1 _q in vss vss nmos l={ll} w={wn} ad={450n*{wn}} as={450n*{wn}} pd={900n+{wn}} ps={1080n+{wn}}"
    Error: undefined symbol in: "[ll]"
Questionable use of curly braces in "m2 vdd in _q vdd pmos l={ll} w={wp} ad={450n*{wp}} as={450n*{wp}} pd={900n+{wp}} ps={1080n+{wp}}"
    Error: undefined symbol in: "[ll]"
Questionable use of curly braces in "m1 _q in vss vss nmos l={ll} w={wn} ad={450n*{wn}} as={450n*{wn}} pd={900n+{wn}} ps={1080n+{wn}}"
    Error: undefined symbol in: "[ll]"
Questionable use of curly braces in "m2 vdd in _q vdd pmos l={ll} w={wp} ad={450n*{wp}} as={450n*{wp}} pd={900n+{wp}} ps={1080n+{wp}}"
    Error: undefined symbol in: "[ll]"
Questionable use of curly braces in "m1 _q in vss vss nmos l={ll} w={wn} ad={450n*{wn}} as={450n*{wn}} pd={900n+{wn}} ps={1080n+{wn}}"
    Error: undefined symbol in: "[ll]"
Questionable use of curly braces in "m2 vdd in _q vdd pmos l={ll} w={wp} ad={450n*{wp}} as={450n*{wp}} pd={900n+{wp}} ps={1080n+{wp}}"
    Error: undefined symbol in: "[ll]"
Error on line 119 : m:x1:x6:x1:1 x1:x6:n001«:::_q» x1:n004«::in:in» 0«:vss:vss:vss» 0«:vss:vss:vss» x1:x6:x1:nmos l=(ll) w= 6.00223657767611e-007  ad= 2.70100645995425e-013  as= 2.70100645995425e-013  pd= 1.50022365776761e-006  ps= 1.68022365776761e-006 
	 Unknown parameter "ll"
Error on line 120 : m:x1:x6:x1:2 vdd«:vdd:vdd:vdd» x1:n004«::in:in» x1:x6:n001«:::_q» vdd«:vdd:vdd:vdd» x1:x6:x1:pmos l=(ll) w= 1.29648310077804e-006  ad= 5.83417395350118e-013  as= 5.83417395350118e-013  pd= 2.19648310077804e-006  ps= 2.37648310077804e-006 
	 Unknown parameter "ll"
Error on line 119 : m:x1:x6:x2:1 x1:x6:n002«:::_q» x1:x6:n001«:::in» 0«:vss:vss:vss» 0«:vss:vss:vss» x1:x6:x2:nmos l=(ll) w= 1.49681710166486e-006  ad= 6.73567695749187e-013  as= 6.73567695749187e-013  pd= 2.39681710166486e-006  ps= 2.57681710166486e-006 
	 Unknown parameter "ll"
Error on line 120 : m:x1:x6:x2:2 vdd«:vdd:vdd:vdd» x1:x6:n001«:::in» x1:x6:n002«:::_q» vdd«:vdd:vdd:vdd» x1:x6:x2:pmos l=(ll) w= 3.23312493959611e-006  ad= 1.45490622281825e-012  as= 1.45490622281825e-012  pd= 4.13312493959611e-006  ps= 4.31312493959611e-006 
	 Unknown parameter "ll"
Error on line 119 : m:x1:x6:x3:1 x1:x6:n003«:::_q» x1:x6:n002«:::in» 0«:vss:vss:vss» 0«:vss:vss:vss» x1:x6:x3:nmos l=(ll) w= 3.73271097672036e-006  ad= 1.67971993952416e-012  as= 1.67971993952416e-012  pd= 4.63271097672036e-006  ps= 4.81271097672036e-006 
	 Unknown parameter "ll"
Error on line 120 : m:x1:x6:x3:2 vdd«:vdd:vdd:vdd» x1:x6:n002«:::in» x1:x6:n003«:::_q» vdd«:vdd:vdd:vdd» x1:x6:x3:pmos l=(ll) w= 8.06265570971598e-006  ad= 3.62819506937219e-012  as= 3.62819506937219e-012  pd= 8.96265570971598e-006  ps= 9.14265570971598e-006 
	 Unknown parameter "ll"
Error on line 119 : m:x1:x6:x4:1 x1:x6:n004«:::_q» x1:x6:n003«:::in» 0«:vss:vss:vss» 0«:vss:vss:vss» x1:x6:x4:nmos l=(ll) w= 9.30850617636e-006  ad= 4.188827779362e-012  as= 4.188827779362e-012  pd= 1.020850617636e-005  ps= 1.038850617636e-005 
	 Unknown parameter "ll"
Error on line 120 : m:x1:x6:x4:2 vdd«:vdd:vdd:vdd» x1:x6:n003«:::in» x1:x6:n004«:::_q» vdd«:vdd:vdd:vdd» x1:x6:x4:pmos l=(ll) w= 2.01063733409376e-005  ad= 9.04786800342192e-012  as= 9.04786800342192e-012  pd= 2.10063733409376e-005  ps= 2.11863733409376e-005 
	 Unknown parameter "ll"
Error on line 119 : m:x1:x6:x5:1 x1:x6:n005«:::_q» x1:x6:n004«:::in» 0«:vss:vss:vss» 0«:vss:vss:vss» x1:x6:x5:nmos l=(ll) w= 2.321323236e-005  ad= 1.0445954562e-011  as= 1.0445954562e-011  pd= 2.411323236e-005  ps= 2.429323236e-005 
	 Unknown parameter "ll"
Error on line 120 : m:x1:x6:x5:2 vdd«:vdd:vdd:vdd» x1:x6:n004«:::in» x1:x6:n005«:::_q» vdd«:vdd:vdd:vdd» x1:x6:x5:pmos l=(ll) w= 5.01405818976e-005  ad= 2.256326185392e-011  as= 2.256326185392e-011  pd= 5.10405818976e-005  ps= 5.12205818976e-005 
	 Unknown parameter "ll"
Error on line 119 : m:x1:x6:x6:1 x1:x6:n006«:::_q» x1:x6:n005«:::in» 0«:vss:vss:vss» 0«:vss:vss:vss» x1:x6:x6:nmos l=(ll) w= 5.788836e-005  ad= 2.6049762e-011  as= 2.6049762e-011  pd= 5.878836e-005  ps= 5.896836e-005 
	 Unknown parameter "ll"
Error on line 120 : m:x1:x6:x6:2 vdd«:vdd:vdd:vdd» x1:x6:n005«:::in» x1:x6:n006«:::_q» vdd«:vdd:vdd:vdd» x1:x6:x6:pmos l=(ll) w= 0.0001250388576  ad= 5.626748592e-011  as= 5.626748592e-011  pd= 0.0001259388576  ps= 0.0001261188576 
	 Unknown parameter "ll"
Error on line 119 : m:x1:x6:x7:1 x1:x6:n007«:::_q» x1:x6:n006«:::in» 0«:vss:vss:vss» 0«:vss:vss:vss» x1:x6:x7:nmos l=(ll) w= 0.00014436  ad= 6.4962e-011  as= 6.4962e-011  pd= 0.00014526  ps= 0.00014544 
	 Unknown parameter "ll"
Error on line 120 : m:x1:x6:x7:2 vdd«:vdd:vdd:vdd» x1:x6:n006«:::in» x1:x6:n007«:::_q» vdd«:vdd:vdd:vdd» x1:x6:x7:pmos l=(ll) w= 0.0003118176  ad= 1.4031792e-010  as= 1.4031792e-010  pd= 0.0003127176  ps= 0.0003128976 
	 Unknown parameter "ll"
Error on line 119 : m:x1:x6:x8:1 o1«:o1:out:_q» x1:x6:n007«:::in» 0«:vss:vss:vss» 0«:vss:vss:vss» x1:x6:x8:nmos l=(ll) w= 0.00036  ad= 1.62e-010  as= 1.62e-010  pd= 0.0003609  ps= 0.00036108 
	 Unknown parameter "ll"
Error on line 120 : m:x1:x6:x8:2 vdd«:vdd:vdd:vdd» x1:x6:n007«:::in» o1«:o1:out:_q» vdd«:vdd:vdd:vdd» x1:x6:x8:pmos l=(ll) w= 0.0007776  ad= 3.4992e-010  as= 3.4992e-010  pd= 0.0007785  ps= 0.00077868 
	 Unknown parameter "ll"
Error on line 119 : m:x1:x7:x1:1 x1:x7:n001«:::_q» x1:n005«::in:in» 0«:vss:vss:vss» 0«:vss:vss:vss» x1:x7:x1:nmos l=(ll) w= 6.00223657767611e-007  ad= 2.70100645995425e-013  as= 2.70100645995425e-013  pd= 1.50022365776761e-006  ps= 1.68022365776761e-006 
	 Unknown parameter "ll"
Error on line 120 : m:x1:x7:x1:2 vdd«:vdd:vdd:vdd» x1:n005«::in:in» x1:x7:n001«:::_q» vdd«:vdd:vdd:vdd» x1:x7:x1:pmos l=(ll) w= 1.29648310077804e-006  ad= 5.83417395350118e-013  as= 5.83417395350118e-013  pd= 2.19648310077804e-006  ps= 2.37648310077804e-006 
	 Unknown parameter "ll"
Error on line 119 : m:x1:x7:x2:1 x1:x7:n002«:::_q» x1:x7:n001«:::in» 0«:vss:vss:vss» 0«:vss:vss:vss» x1:x7:x2:nmos l=(ll) w= 1.49681710166486e-006  ad= 6.73567695749187e-013  as= 6.73567695749187e-013  pd= 2.39681710166486e-006  ps= 2.57681710166486e-006 
	 Unknown parameter "ll"
Error on line 120 : m:x1:x7:x2:2 vdd«:vdd:vdd:vdd» x1:x7:n001«:::in» x1:x7:n002«:::_q» vdd«:vdd:vdd:vdd» x1:x7:x2:pmos l=(ll) w= 3.23312493959611e-006  ad= 1.45490622281825e-012  as= 1.45490622281825e-012  pd= 4.13312493959611e-006  ps= 4.31312493959611e-006 
	 Unknown parameter "ll"
Error on line 119 : m:x1:x7:x3:1 x1:x7:n003«:::_q» x1:x7:n002«:::in» 0«:vss:vss:vss» 0«:vss:vss:vss» x1:x7:x3:nmos l=(ll) w= 3.73271097672036e-006  ad= 1.67971993952416e-012  as= 1.67971993952416e-012  pd= 4.63271097672036e-006  ps= 4.81271097672036e-006 
	 Unknown parameter "ll"
Error on line 120 : m:x1:x7:x3:2 vdd«:vdd:vdd:vdd» x1:x7:n002«:::in» x1:x7:n003«:::_q» vdd«:vdd:vdd:vdd» x1:x7:x3:pmos l=(ll) w= 8.06265570971598e-006  ad= 3.62819506937219e-012  as= 3.62819506937219e-012  pd= 8.96265570971598e-006  ps= 9.14265570971598e-006 
	 Unknown parameter "ll"
Error on line 119 : m:x1:x7:x4:1 x1:x7:n004«:::_q» x1:x7:n003«:::in» 0«:vss:vss:vss» 0«:vss:vss:vss» x1:x7:x4:nmos l=(ll) w= 9.30850617636e-006  ad= 4.188827779362e-012  as= 4.188827779362e-012  pd= 1.020850617636e-005  ps= 1.038850617636e-005 
	 Unknown parameter "ll"
Error on line 120 : m:x1:x7:x4:2 vdd«:vdd:vdd:vdd» x1:x7:n003«:::in» x1:x7:n004«:::_q» vdd«:vdd:vdd:vdd» x1:x7:x4:pmos l=(ll) w= 2.01063733409376e-005  ad= 9.04786800342192e-012  as= 9.04786800342192e-012  pd= 2.10063733409376e-005  ps= 2.11863733409376e-005 
	 Unknown parameter "ll"
Error on line 119 : m:x1:x7:x5:1 x1:x7:n005«:::_q» x1:x7:n004«:::in» 0«:vss:vss:vss» 0«:vss:vss:vss» x1:x7:x5:nmos l=(ll) w= 2.321323236e-005  ad= 1.0445954562e-011  as= 1.0445954562e-011  pd= 2.411323236e-005  ps= 2.429323236e-005 
	 Unknown parameter "ll"
Error on line 120 : m:x1:x7:x5:2 vdd«:vdd:vdd:vdd» x1:x7:n004«:::in» x1:x7:n005«:::_q» vdd«:vdd:vdd:vdd» x1:x7:x5:pmos l=(ll) w= 5.01405818976e-005  ad= 2.256326185392e-011  as= 2.256326185392e-011  pd= 5.10405818976e-005  ps= 5.12205818976e-005 
	 Unknown parameter "ll"
Error on line 119 : m:x1:x7:x6:1 x1:x7:n006«:::_q» x1:x7:n005«:::in» 0«:vss:vss:vss» 0«:vss:vss:vss» x1:x7:x6:nmos l=(ll) w= 5.788836e-005  ad= 2.6049762e-011  as= 2.6049762e-011  pd= 5.878836e-005  ps= 5.896836e-005 
	 Unknown parameter "ll"
Error on line 120 : m:x1:x7:x6:2 vdd«:vdd:vdd:vdd» x1:x7:n005«:::in» x1:x7:n006«:::_q» vdd«:vdd:vdd:vdd» x1:x7:x6:pmos l=(ll) w= 0.0001250388576  ad= 5.626748592e-011  as= 5.626748592e-011  pd= 0.0001259388576  ps= 0.0001261188576 
	 Unknown parameter "ll"
Error on line 119 : m:x1:x7:x7:1 x1:x7:n007«:::_q» x1:x7:n006«:::in» 0«:vss:vss:vss» 0«:vss:vss:vss» x1:x7:x7:nmos l=(ll) w= 0.00014436  ad= 6.4962e-011  as= 6.4962e-011  pd= 0.00014526  ps= 0.00014544 
	 Unknown parameter "ll"
Error on line 120 : m:x1:x7:x7:2 vdd«:vdd:vdd:vdd» x1:x7:n006«:::in» x1:x7:n007«:::_q» vdd«:vdd:vdd:vdd» x1:x7:x7:pmos l=(ll) w= 0.0003118176  ad= 1.4031792e-010  as= 1.4031792e-010  pd= 0.0003127176  ps= 0.0003128976 
	 Unknown parameter "ll"
Error on line 119 : m:x1:x7:x8:1 o2«:o2:out:_q» x1:x7:n007«:::in» 0«:vss:vss:vss» 0«:vss:vss:vss» x1:x7:x8:nmos l=(ll) w= 0.00036  ad= 1.62e-010  as= 1.62e-010  pd= 0.0003609  ps= 0.00036108 
	 Unknown parameter "ll"
Error on line 120 : m:x1:x7:x8:2 vdd«:vdd:vdd:vdd» x1:x7:n007«:::in» o2«:o2:out:_q» vdd«:vdd:vdd:vdd» x1:x7:x8:pmos l=(ll) w= 0.0007776  ad= 3.4992e-010  as= 3.4992e-010  pd= 0.0007785  ps= 0.00077868 
	 Unknown parameter "ll"
Error on line 119 : m:x1:x8:x1:1 x1:x8:n001«:::_q» x1:n007«::in:in» 0«:vss:vss:vss» 0«:vss:vss:vss» x1:x8:x1:nmos l=(ll) w= 6.00223657767611e-007  ad= 2.70100645995425e-013  as= 2.70100645995425e-013  pd= 1.50022365776761e-006  ps= 1.68022365776761e-006 
	 Unknown parameter "ll"
Error on line 120 : m:x1:x8:x1:2 vdd«:vdd:vdd:vdd» x1:n007«::in:in» x1:x8:n001«:::_q» vdd«:vdd:vdd:vdd» x1:x8:x1:pmos l=(ll) w= 1.29648310077804e-006  ad= 5.83417395350118e-013  as= 5.83417395350118e-013  pd= 2.19648310077804e-006  ps= 2.37648310077804e-006 
	 Unknown parameter "ll"
Error on line 119 : m:x1:x8:x2:1 x1:x8:n002«:::_q» x1:x8:n001«:::in» 0«:vss:vss:vss» 0«:vss:vss:vss» x1:x8:x2:nmos l=(ll) w= 1.49681710166486e-006  ad= 6.73567695749187e-013  as= 6.73567695749187e-013  pd= 2.39681710166486e-006  ps= 2.57681710166486e-006 
	 Unknown parameter "ll"
Error on line 120 : m:x1:x8:x2:2 vdd«:vdd:vdd:vdd» x1:x8:n001«:::in» x1:x8:n002«:::_q» vdd«:vdd:vdd:vdd» x1:x8:x2:pmos l=(ll) w= 3.23312493959611e-006  ad= 1.45490622281825e-012  as= 1.45490622281825e-012  pd= 4.13312493959611e-006  ps= 4.31312493959611e-006 
	 Unknown parameter "ll"
Error on line 119 : m:x1:x8:x3:1 x1:x8:n003«:::_q» x1:x8:n002«:::in» 0«:vss:vss:vss» 0«:vss:vss:vss» x1:x8:x3:nmos l=(ll) w= 3.73271097672036e-006  ad= 1.67971993952416e-012  as= 1.67971993952416e-012  pd= 4.63271097672036e-006  ps= 4.81271097672036e-006 
	 Unknown parameter "ll"
Error on line 120 : m:x1:x8:x3:2 vdd«:vdd:vdd:vdd» x1:x8:n002«:::in» x1:x8:n003«:::_q» vdd«:vdd:vdd:vdd» x1:x8:x3:pmos l=(ll) w= 8.06265570971598e-006  ad= 3.62819506937219e-012  as= 3.62819506937219e-012  pd= 8.96265570971598e-006  ps= 9.14265570971598e-006 
	 Unknown parameter "ll"
Error on line 119 : m:x1:x8:x4:1 x1:x8:n004«:::_q» x1:x8:n003«:::in» 0«:vss:vss:vss» 0«:vss:vss:vss» x1:x8:x4:nmos l=(ll) w= 9.30850617636e-006  ad= 4.188827779362e-012  as= 4.188827779362e-012  pd= 1.020850617636e-005  ps= 1.038850617636e-005 
	 Unknown parameter "ll"
Error on line 120 : m:x1:x8:x4:2 vdd«:vdd:vdd:vdd» x1:x8:n003«:::in» x1:x8:n004«:::_q» vdd«:vdd:vdd:vdd» x1:x8:x4:pmos l=(ll) w= 2.01063733409376e-005  ad= 9.04786800342192e-012  as= 9.04786800342192e-012  pd= 2.10063733409376e-005  ps= 2.11863733409376e-005 
	 Unknown parameter "ll"
Error on line 119 : m:x1:x8:x5:1 x1:x8:n005«:::_q» x1:x8:n004«:::in» 0«:vss:vss:vss» 0«:vss:vss:vss» x1:x8:x5:nmos l=(ll) w= 2.321323236e-005  ad= 1.0445954562e-011  as= 1.0445954562e-011  pd= 2.411323236e-005  ps= 2.429323236e-005 
	 Unknown parameter "ll"
Error on line 120 : m:x1:x8:x5:2 vdd«:vdd:vdd:vdd» x1:x8:n004«:::in» x1:x8:n005«:::_q» vdd«:vdd:vdd:vdd» x1:x8:x5:pmos l=(ll) w= 5.01405818976e-005  ad= 2.256326185392e-011  as= 2.256326185392e-011  pd= 5.10405818976e-005  ps= 5.12205818976e-005 
	 Unknown parameter "ll"
Error on line 119 : m:x1:x8:x6:1 x1:x8:n006«:::_q» x1:x8:n005«:::in» 0«:vss:vss:vss» 0«:vss:vss:vss» x1:x8:x6:nmos l=(ll) w= 5.788836e-005  ad= 2.6049762e-011  as= 2.6049762e-011  pd= 5.878836e-005  ps= 5.896836e-005 
	 Unknown parameter "ll"
Error on line 120 : m:x1:x8:x6:2 vdd«:vdd:vdd:vdd» x1:x8:n005«:::in» x1:x8:n006«:::_q» vdd«:vdd:vdd:vdd» x1:x8:x6:pmos l=(ll) w= 0.0001250388576  ad= 5.626748592e-011  as= 5.626748592e-011  pd= 0.0001259388576  ps= 0.0001261188576 
	 Unknown parameter "ll"
Error on line 119 : m:x1:x8:x7:1 x1:x8:n007«:::_q» x1:x8:n006«:::in» 0«:vss:vss:vss» 0«:vss:vss:vss» x1:x8:x7:nmos l=(ll) w= 0.00014436  ad= 6.4962e-011  as= 6.4962e-011  pd= 0.00014526  ps= 0.00014544 
	 Unknown parameter "ll"
Error on line 120 : m:x1:x8:x7:2 vdd«:vdd:vdd:vdd» x1:x8:n006«:::in» x1:x8:n007«:::_q» vdd«:vdd:vdd:vdd» x1:x8:x7:pmos l=(ll) w= 0.0003118176  ad= 1.4031792e-010  as= 1.4031792e-010  pd= 0.0003127176  ps= 0.0003128976 
	 Unknown parameter "ll"
Error on line 119 : m:x1:x8:x8:1 o3«:o3:out:_q» x1:x8:n007«:::in» 0«:vss:vss:vss» 0«:vss:vss:vss» x1:x8:x8:nmos l=(ll) w= 0.00036  ad= 1.62e-010  as= 1.62e-010  pd= 0.0003609  ps= 0.00036108 
	 Unknown parameter "ll"
Error on line 120 : m:x1:x8:x8:2 vdd«:vdd:vdd:vdd» x1:x8:n007«:::in» o3«:o3:out:_q» vdd«:vdd:vdd:vdd» x1:x8:x8:pmos l=(ll) w= 0.0007776  ad= 3.4992e-010  as= 3.4992e-010  pd= 0.0007785  ps= 0.00077868 
	 Unknown parameter "ll"
Error on line 119 : m:x1:x9:x1:1 x1:x9:n001«:::_q» x1:n010«::in:in» 0«:vss:vss:vss» 0«:vss:vss:vss» x1:x9:x1:nmos l=(ll) w= 6.00223657767611e-007  ad= 2.70100645995425e-013  as= 2.70100645995425e-013  pd= 1.50022365776761e-006  ps= 1.68022365776761e-006 
	 Unknown parameter "ll"
Error on line 120 : m:x1:x9:x1:2 vdd«:vdd:vdd:vdd» x1:n010«::in:in» x1:x9:n001«:::_q» vdd«:vdd:vdd:vdd» x1:x9:x1:pmos l=(ll) w= 1.29648310077804e-006  ad= 5.83417395350118e-013  as= 5.83417395350118e-013  pd= 2.19648310077804e-006  ps= 2.37648310077804e-006 
	 Unknown parameter "ll"
Error on line 119 : m:x1:x9:x2:1 x1:x9:n002«:::_q» x1:x9:n001«:::in» 0«:vss:vss:vss» 0«:vss:vss:vss» x1:x9:x2:nmos l=(ll) w= 1.49681710166486e-006  ad= 6.73567695749187e-013  as= 6.73567695749187e-013  pd= 2.39681710166486e-006  ps= 2.57681710166486e-006 
	 Unknown parameter "ll"
Error on line 120 : m:x1:x9:x2:2 vdd«:vdd:vdd:vdd» x1:x9:n001«:::in» x1:x9:n002«:::_q» vdd«:vdd:vdd:vdd» x1:x9:x2:pmos l=(ll) w= 3.23312493959611e-006  ad= 1.45490622281825e-012  as= 1.45490622281825e-012  pd= 4.13312493959611e-006  ps= 4.31312493959611e-006 
	 Unknown parameter "ll"
Error on line 119 : m:x1:x9:x3:1 x1:x9:n003«:::_q» x1:x9:n002«:::in» 0«:vss:vss:vss» 0«:vss:vss:vss» x1:x9:x3:nmos l=(ll) w= 3.73271097672036e-006  ad= 1.67971993952416e-012  as= 1.67971993952416e-012  pd= 4.63271097672036e-006  ps= 4.81271097672036e-006 
	 Unknown parameter "ll"
Error on line 120 : m:x1:x9:x3:2 vdd«:vdd:vdd:vdd» x1:x9:n002«:::in» x1:x9:n003«:::_q» vdd«:vdd:vdd:vdd» x1:x9:x3:pmos l=(ll) w= 8.06265570971598e-006  ad= 3.62819506937219e-012  as= 3.62819506937219e-012  pd= 8.96265570971598e-006  ps= 9.14265570971598e-006 
	 Unknown parameter "ll"
Error on line 119 : m:x1:x9:x4:1 x1:x9:n004«:::_q» x1:x9:n003«:::in» 0«:vss:vss:vss» 0«:vss:vss:vss» x1:x9:x4:nmos l=(ll) w= 9.30850617636e-006  ad= 4.188827779362e-012  as= 4.188827779362e-012  pd= 1.020850617636e-005  ps= 1.038850617636e-005 
	 Unknown parameter "ll"
Error on line 120 : m:x1:x9:x4:2 vdd«:vdd:vdd:vdd» x1:x9:n003«:::in» x1:x9:n004«:::_q» vdd«:vdd:vdd:vdd» x1:x9:x4:pmos l=(ll) w= 2.01063733409376e-005  ad= 9.04786800342192e-012  as= 9.04786800342192e-012  pd= 2.10063733409376e-005  ps= 2.11863733409376e-005 
	 Unknown parameter "ll"
Error on line 119 : m:x1:x9:x5:1 x1:x9:n005«:::_q» x1:x9:n004«:::in» 0«:vss:vss:vss» 0«:vss:vss:vss» x1:x9:x5:nmos l=(ll) w= 2.321323236e-005  ad= 1.0445954562e-011  as= 1.0445954562e-011  pd= 2.411323236e-005  ps= 2.429323236e-005 
	 Unknown parameter "ll"
Error on line 120 : m:x1:x9:x5:2 vdd«:vdd:vdd:vdd» x1:x9:n004«:::in» x1:x9:n005«:::_q» vdd«:vdd:vdd:vdd» x1:x9:x5:pmos l=(ll) w= 5.01405818976e-005  ad= 2.256326185392e-011  as= 2.256326185392e-011  pd= 5.10405818976e-005  ps= 5.12205818976e-005 
	 Unknown parameter "ll"
Error on line 119 : m:x1:x9:x6:1 x1:x9:n006«:::_q» x1:x9:n005«:::in» 0«:vss:vss:vss» 0«:vss:vss:vss» x1:x9:x6:nmos l=(ll) w= 5.788836e-005  ad= 2.6049762e-011  as= 2.6049762e-011  pd= 5.878836e-005  ps= 5.896836e-005 
	 Unknown parameter "ll"
Error on line 120 : m:x1:x9:x6:2 vdd«:vdd:vdd:vdd» x1:x9:n005«:::in» x1:x9:n006«:::_q» vdd«:vdd:vdd:vdd» x1:x9:x6:pmos l=(ll) w= 0.0001250388576  ad= 5.626748592e-011  as= 5.626748592e-011  pd= 0.0001259388576  ps= 0.0001261188576 
	 Unknown parameter "ll"
Error on line 119 : m:x1:x9:x7:1 x1:x9:n007«:::_q» x1:x9:n006«:::in» 0«:vss:vss:vss» 0«:vss:vss:vss» x1:x9:x7:nmos l=(ll) w= 0.00014436  ad= 6.4962e-011  as= 6.4962e-011  pd= 0.00014526  ps= 0.00014544 
	 Unknown parameter "ll"
Error on line 120 : m:x1:x9:x7:2 vdd«:vdd:vdd:vdd» x1:x9:n006«:::in» x1:x9:n007«:::_q» vdd«:vdd:vdd:vdd» x1:x9:x7:pmos l=(ll) w= 0.0003118176  ad= 1.4031792e-010  as= 1.4031792e-010  pd= 0.0003127176  ps= 0.0003128976 
	 Unknown parameter "ll"
Error on line 119 : m:x1:x9:x8:1 cout«:cout:out:_q» x1:x9:n007«:::in» 0«:vss:vss:vss» 0«:vss:vss:vss» x1:x9:x8:nmos l=(ll) w= 0.00036  ad= 1.62e-010  as= 1.62e-010  pd= 0.0003609  ps= 0.00036108 
	 Unknown parameter "ll"
Error on line 120 : m:x1:x9:x8:2 vdd«:vdd:vdd:vdd» x1:x9:n007«:::in» cout«:cout:out:_q» vdd«:vdd:vdd:vdd» x1:x9:x8:pmos l=(ll) w= 0.0007776  ad= 3.4992e-010  as= 3.4992e-010  pd= 0.0007785  ps= 0.00077868 
	 Unknown parameter "ll"
WARNING: Node X1:X1:X3:N001 is floating.
WARNING: Node X1:X1:X3:N002 is floating.
WARNING: Node X1:X1:X3:N003 is floating.
WARNING: Node X1:X1:X3:N005 is floating.
WARNING: Node X1:X1:X4:N001 is floating.
WARNING: Node X1:X1:X4:N002 is floating.
WARNING: Node X1:X1:X4:N003 is floating.
WARNING: Node X1:X1:X4:N005 is floating.
WARNING: Node X1:X1:X6:N001 is floating.
WARNING: Node X1:X1:X6:N002 is floating.
WARNING: Node X1:X1:X6:N003 is floating.
WARNING: Node X1:X1:X6:N005 is floating.
WARNING: Node X1:X1:X13:N001 is floating.
WARNING: Node X1:X1:X13:N002 is floating.
WARNING: Node X1:X1:X13:N003 is floating.
WARNING: Node X1:X1:X13:N005 is floating.
WARNING: Node X1:X1:X14:N001 is floating.
WARNING: Node X1:X1:X14:N002 is floating.
WARNING: Node X1:X1:X14:N003 is floating.
WARNING: Node X1:X1:X14:N005 is floating.
WARNING: Node X1:X1:X15:N001 is floating.
WARNING: Node X1:X1:X15:N002 is floating.
WARNING: Node X1:X1:X15:N003 is floating.
WARNING: Node X1:X1:X15:N005 is floating.
WARNING: Node X1:X1:X18:N001 is floating.
WARNING: Node X1:X1:X18:N002 is floating.
WARNING: Node X1:X1:X18:N003 is floating.
WARNING: Node X1:X1:X18:N005 is floating.
WARNING: Node X1:X1:X19:N001 is floating.
WARNING: Node X1:X1:X19:N002 is floating.
WARNING: Node X1:X1:X19:N003 is floating.
WARNING: Node X1:X1:X19:N005 is floating.
WARNING: Node X1:X1:X20:N001 is floating.
WARNING: Node X1:X1:X20:N002 is floating.
WARNING: Node X1:X1:X20:N003 is floating.
WARNING: Node X1:X1:X20:N005 is floating.
WARNING: Node X1:X2:X1:N001 is floating.
WARNING: Node X1:X2:X1:N002 is floating.
WARNING: Node X1:X2:X1:N003 is floating.
WARNING: Node X1:X2:X1:N005 is floating.
WARNING: Node X1:X2:X2:N001 is floating.
WARNING: Node X1:X2:X2:N002 is floating.
WARNING: Node X1:X2:X2:N003 is floating.
WARNING: Node X1:X2:X2:N005 is floating.
WARNING: Node X1:X2:X3:N001 is floating.
WARNING: Node X1:X2:X3:N002 is floating.
WARNING: Node X1:X2:X3:N003 is floating.
WARNING: Node X1:X2:X3:N005 is floating.
WARNING: Node X1:X3:X2:N002 is floating.
WARNING: Node X1:X3:X2:N001 is floating.
WARNING: Node X1:X3:X1:N001 is floating.
WARNING: Node X1:X3:X1:N002 is floating.
WARNING: Node X1:X3:X1:N003 is floating.
WARNING: Node X1:X3:X1:N005 is floating.
WARNING: Node X1:X3:X5:N001 is floating.
WARNING: Node X1:X3:X5:N002 is floating.
WARNING: Node X1:X3:X5:N003 is floating.
WARNING: Node X1:X3:X5:N005 is floating.
WARNING: Node X1:X3:X8:N002 is floating.
WARNING: Node X1:X3:X8:N001 is floating.
WARNING: Node X1:X3:X10:N001 is floating.
WARNING: Node X1:X3:X10:N002 is floating.
WARNING: Node X1:X3:X10:N003 is floating.
WARNING: Node X1:X3:X10:N005 is floating.
WARNING: Node X1:X3:X12:N001 is floating.
WARNING: Node X1:X3:X12:N002 is floating.
WARNING: Node X1:X3:X12:N003 is floating.
WARNING: Node X1:X3:X12:N005 is floating.
WARNING: Node X1:X3:X15:N002 is floating.
WARNING: Node X1:X3:X15:N001 is floating.
WARNING: Node X1:X3:X17:N001 is floating.
WARNING: Node X1:X3:X17:N002 is floating.
WARNING: Node X1:X3:X17:N003 is floating.
WARNING: Node X1:X3:X17:N005 is floating.
WARNING: Node X1:X3:X19:N001 is floating.
WARNING: Node X1:X3:X19:N002 is floating.
WARNING: Node X1:X3:X19:N003 is floating.
WARNING: Node X1:X3:X19:N005 is floating.

WARNING: Less than two connections to node X1:X1:X3:N001.  This node is used by M:X1:X1:X3:1.
WARNING: Less than two connections to node X1:X1:X3:N002.  This node is used by M:X1:X1:X3:3.
WARNING: Less than two connections to node X1:X1:X3:N003.  This node is used by M:X1:X1:X3:2.
WARNING: Less than two connections to node X1:X1:X3:N005.  This node is used by M:X1:X1:X3:4.
WARNING: Less than two connections to node X1:X1:X4:N001.  This node is used by M:X1:X1:X4:1.
WARNING: Less than two connections to node X1:X1:X4:N002.  This node is used by M:X1:X1:X4:3.
WARNING: Less than two connections to node X1:X1:X4:N003.  This node is used by M:X1:X1:X4:2.
WARNING: Less than two connections to node X1:X1:X4:N005.  This node is used by M:X1:X1:X4:4.
WARNING: Less than two connections to node X1:X1:X6:N001.  This node is used by M:X1:X1:X6:1.
WARNING: Less than two connections to node X1:X1:X6:N002.  This node is used by M:X1:X1:X6:3.
WARNING: Less than two connections to node X1:X1:X6:N003.  This node is used by M:X1:X1:X6:2.
WARNING: Less than two connections to node X1:X1:X6:N005.  This node is used by M:X1:X1:X6:4.
WARNING: Less than two connections to node X1:X1:X13:N001.  This node is used by M:X1:X1:X13:1.
WARNING: Less than two connections to node X1:X1:X13:N002.  This node is used by M:X1:X1:X13:3.
WARNING: Less than two connections to node X1:X1:X13:N003.  This node is used by M:X1:X1:X13:2.
WARNING: Less than two connections to node X1:X1:X13:N005.  This node is used by M:X1:X1:X13:4.
WARNING: Less than two connections to node X1:X1:X14:N001.  This node is used by M:X1:X1:X14:1.
WARNING: Less than two connections to node X1:X1:X14:N002.  This node is used by M:X1:X1:X14:3.
WARNING: Less than two connections to node X1:X1:X14:N003.  This node is used by M:X1:X1:X14:2.
WARNING: Less than two connections to node X1:X1:X14:N005.  This node is used by M:X1:X1:X14:4.
WARNING: Less than two connections to node X1:X1:X15:N001.  This node is used by M:X1:X1:X15:1.
WARNING: Less than two connections to node X1:X1:X15:N002.  This node is used by M:X1:X1:X15:3.
WARNING: Less than two connections to node X1:X1:X15:N003.  This node is used by M:X1:X1:X15:2.
WARNING: Less than two connections to node X1:X1:X15:N005.  This node is used by M:X1:X1:X15:4.
WARNING: Less than two connections to node X1:X1:X18:N001.  This node is used by M:X1:X1:X18:1.
WARNING: Less than two connections to node X1:X1:X18:N002.  This node is used by M:X1:X1:X18:3.
WARNING: Less than two connections to node X1:X1:X18:N003.  This node is used by M:X1:X1:X18:2.
WARNING: Less than two connections to node X1:X1:X18:N005.  This node is used by M:X1:X1:X18:4.
WARNING: Less than two connections to node X1:X1:X19:N001.  This node is used by M:X1:X1:X19:1.
WARNING: Less than two connections to node X1:X1:X19:N002.  This node is used by M:X1:X1:X19:3.
WARNING: Less than two connections to node X1:X1:X19:N003.  This node is used by M:X1:X1:X19:2.
WARNING: Less than two connections to node X1:X1:X19:N005.  This node is used by M:X1:X1:X19:4.
WARNING: Less than two connections to node X1:X1:X20:N001.  This node is used by M:X1:X1:X20:1.
WARNING: Less than two connections to node X1:X1:X20:N002.  This node is used by M:X1:X1:X20:3.
WARNING: Less than two connections to node X1:X1:X20:N003.  This node is used by M:X1:X1:X20:2.
WARNING: Less than two connections to node X1:X1:X20:N005.  This node is used by M:X1:X1:X20:4.
WARNING: Less than two connections to node X1:X2:X1:N001.  This node is used by M:X1:X2:X1:1.
WARNING: Less than two connections to node X1:X2:X1:N002.  This node is used by M:X1:X2:X1:3.
WARNING: Less than two connections to node X1:X2:X1:N003.  This node is used by M:X1:X2:X1:2.
WARNING: Less than two connections to node X1:X2:X1:N005.  This node is used by M:X1:X2:X1:4.
WARNING: Less than two connections to node X1:X2:X2:N001.  This node is used by M:X1:X2:X2:1.
WARNING: Less than two connections to node X1:X2:X2:N002.  This node is used by M:X1:X2:X2:3.
WARNING: Less than two connections to node X1:X2:X2:N003.  This node is used by M:X1:X2:X2:2.
WARNING: Less than two connections to node X1:X2:X2:N005.  This node is used by M:X1:X2:X2:4.
WARNING: Less than two connections to node X1:X2:X3:N001.  This node is used by M:X1:X2:X3:1.
WARNING: Less than two connections to node X1:X2:X3:N002.  This node is used by M:X1:X2:X3:3.
WARNING: Less than two connections to node X1:X2:X3:N003.  This node is used by M:X1:X2:X3:2.
WARNING: Less than two connections to node X1:X2:X3:N005.  This node is used by M:X1:X2:X3:4.
WARNING: Less than two connections to node X1:X3:X2:N002.  This node is used by M:X1:X3:X2:1.
WARNING: Less than two connections to node X1:X3:X2:N001.  This node is used by M:X1:X3:X2:4.
WARNING: Less than two connections to node X1:X3:X1:N001.  This node is used by M:X1:X3:X1:1.
WARNING: Less than two connections to node X1:X3:X1:N002.  This node is used by M:X1:X3:X1:3.
WARNING: Less than two connections to node X1:X3:X1:N003.  This node is used by M:X1:X3:X1:2.
WARNING: Less than two connections to node X1:X3:X1:N005.  This node is used by M:X1:X3:X1:4.
WARNING: Less than two connections to node X1:X3:X5:N001.  This node is used by M:X1:X3:X5:1.
WARNING: Less than two connections to node X1:X3:X5:N002.  This node is used by M:X1:X3:X5:3.
WARNING: Less than two connections to node X1:X3:X5:N003.  This node is used by M:X1:X3:X5:2.
WARNING: Less than two connections to node X1:X3:X5:N005.  This node is used by M:X1:X3:X5:4.
WARNING: Less than two connections to node X1:X3:X8:N002.  This node is used by M:X1:X3:X8:1.
WARNING: Less than two connections to node X1:X3:X8:N001.  This node is used by M:X1:X3:X8:4.
WARNING: Less than two connections to node X1:X3:X10:N001.  This node is used by M:X1:X3:X10:1.
WARNING: Less than two connections to node X1:X3:X10:N002.  This node is used by M:X1:X3:X10:3.
WARNING: Less than two connections to node X1:X3:X10:N003.  This node is used by M:X1:X3:X10:2.
WARNING: Less than two connections to node X1:X3:X10:N005.  This node is used by M:X1:X3:X10:4.
WARNING: Less than two connections to node X1:X3:X12:N001.  This node is used by M:X1:X3:X12:1.
WARNING: Less than two connections to node X1:X3:X12:N002.  This node is used by M:X1:X3:X12:3.
WARNING: Less than two connections to node X1:X3:X12:N003.  This node is used by M:X1:X3:X12:2.
WARNING: Less than two connections to node X1:X3:X12:N005.  This node is used by M:X1:X3:X12:4.
WARNING: Less than two connections to node X1:X3:X15:N002.  This node is used by M:X1:X3:X15:1.
WARNING: Less than two connections to node X1:X3:X15:N001.  This node is used by M:X1:X3:X15:4.
WARNING: Less than two connections to node X1:X3:X17:N001.  This node is used by M:X1:X3:X17:1.
WARNING: Less than two connections to node X1:X3:X17:N002.  This node is used by M:X1:X3:X17:3.
WARNING: Less than two connections to node X1:X3:X17:N003.  This node is used by M:X1:X3:X17:2.
WARNING: Less than two connections to node X1:X3:X17:N005.  This node is used by M:X1:X3:X17:4.
WARNING: Less than two connections to node X1:X3:X19:N001.  This node is used by M:X1:X3:X19:1.
WARNING: Less than two connections to node X1:X3:X19:N002.  This node is used by M:X1:X3:X19:3.
WARNING: Less than two connections to node X1:X3:X19:N003.  This node is used by M:X1:X3:X19:2.
WARNING: Less than two connections to node X1:X3:X19:N005.  This node is used by M:X1:X3:X19:4.
Warning: Pd = 0 is less than W.
Warning: Ps = 0 is less than W.
Warning: Pd = 0 is less than W.
Warning: Ps = 0 is less than W.
Warning: Pd = 0 is less than W.
Warning: Ps = 0 is less than W.
Warning: Pd = 0 is less than W.
Warning: Ps = 0 is less than W.
Warning: Pd = 0 is less than W.
Warning: Ps = 0 is less than W.
Warning: Pd = 0 is less than W.
Warning: Ps = 0 is less than W.
Warning: Pd = 0 is less than W.
Warning: Ps = 0 is less than W.
Warning: Pd = 0 is less than W.
Warning: Ps = 0 is less than W.
Warning: Pd = 0 is less than W.
Warning: Ps = 0 is less than W.
Warning: Pd = 0 is less than W.
Warning: Ps = 0 is less than W.
Warning: Pd = 0 is less than W.
Warning: Ps = 0 is less than W.
Warning: Pd = 0 is less than W.
Warning: Ps = 0 is less than W.
Warning: Pd = 0 is less than W.
Warning: Ps = 0 is less than W.
Warning: Pd = 0 is less than W.
Warning: Ps = 0 is less than W.
Warning: Pd = 0 is less than W.
Warning: Ps = 0 is less than W.
Warning: Pd = 0 is less than W.
Warning: Ps = 0 is less than W.
Warning: Pd = 0 is less than W.
Warning: Ps = 0 is less than W.
Warning: Pd = 0 is less than W.
Warning: Ps = 0 is less than W.
Warning: Pd = 0 is less than W.
Warning: Ps = 0 is less than W.
Warning: Pd = 0 is less than W.
Warning: Ps = 0 is less than W.
Warning: Pd = 0 is less than W.
Warning: Ps = 0 is less than W.
Warning: Pd = 0 is less than W.
Warning: Ps = 0 is less than W.
Warning: Pd = 0 is less than W.
Warning: Ps = 0 is less than W.
Warning: Pd = 0 is less than W.
Warning: Ps = 0 is less than W.
Warning: Pd = 0 is less than W.
Warning: Ps = 0 is less than W.
Warning: Pd = 0 is less than W.
Warning: Ps = 0 is less than W.
Warning: Pd = 0 is less than W.
Warning: Ps = 0 is less than W.
Warning: Pd = 0 is less than W.
Warning: Ps = 0 is less than W.
Warning: Pd = 0 is less than W.
Warning: Ps = 0 is less than W.
Warning: Pd = 0 is less than W.
Warning: Ps = 0 is less than W.
Warning: Pd = 0 is less than W.
Warning: Ps = 0 is less than W.
Warning: Pd = 0 is less than W.
Warning: Ps = 0 is less than W.
Warning: Pd = 0 is less than W.
Warning: Ps = 0 is less than W.
Warning: Pd = 0 is less than W.
Warning: Ps = 0 is less than W.
Warning: Pd = 0 is less than W.
Warning: Ps = 0 is less than W.
Warning: Pd = 0 is less than W.
Warning: Ps = 0 is less than W.
Warning: Pd = 0 is less than W.
Warning: Ps = 0 is less than W.
Warning: Pd = 0 is less than W.
Warning: Ps = 0 is less than W.
Warning: Pd = 0 is less than W.
Warning: Ps = 0 is less than W.
Warning: Pd = 0 is less than W.
Warning: Ps = 0 is less than W.
Warning: Pd = 0 is less than W.
Warning: Ps = 0 is less than W.
Warning: Pd = 0 is less than W.
Warning: Ps = 0 is less than W.
Warning: Pd = 0 is less than W.
Warning: Ps = 0 is less than W.
Warning: Pd = 0 is less than W.
Warning: Ps = 0 is less than W.
Warning: Pd = 0 is less than W.
Warning: Ps = 0 is less than W.
Warning: Pd = 0 is less than W.
Warning: Ps = 0 is less than W.
Warning: Pd = 0 is less than W.
Warning: Ps = 0 is less than W.
Warning: Pd = 0 is less than W.
Warning: Ps = 0 is less than W.
Warning: Pd = 0 is less than W.
Warning: Ps = 0 is less than W.
Warning: Pd = 0 is less than W.
Warning: Ps = 0 is less than W.
Warning: Pd = 0 is less than W.
Warning: Ps = 0 is less than W.
Warning: Pd = 0 is less than W.
Warning: Ps = 0 is less than W.
Warning: Pd = 0 is less than W.
Warning: Ps = 0 is less than W.
Warning: Pd = 0 is less than W.
Warning: Ps = 0 is less than W.
Warning: Pd = 0 is less than W.
Warning: Ps = 0 is less than W.
Warning: Pd = 0 is less than W.
Warning: Ps = 0 is less than W.
Warning: Pd = 0 is less than W.
Warning: Ps = 0 is less than W.
Warning: Pd = 0 is less than W.
Warning: Ps = 0 is less than W.
Warning: Pd = 0 is less than W.
Warning: Ps = 0 is less than W.
Warning: Pd = 0 is less than W.
Warning: Ps = 0 is less than W.
Warning: Pd = 0 is less than W.
Warning: Ps = 0 is less than W.
Warning: Pd = 0 is less than W.
Warning: Ps = 0 is less than W.
Warning: Pd = 0 is less than W.
Warning: Ps = 0 is less than W.
Warning: Pd = 0 is less than W.
Warning: Ps = 0 is less than W.
Early termination of direct N-R iteration.
Direct Newton iteration failed to find .op point.  (Use ".option noopiter" to skip.)
Starting Gmin stepping
Increasing initial diagonal Gmin to 100
Increasing initial diagonal Gmin to 1000
Increasing initial diagonal Gmin to 10000
Increasing initial diagonal Gmin to 100000
Increasing initial diagonal Gmin to 1e+006
Initial Gmin=1e+006 failed
Gmin stepping failed

Starting source stepping with srcstepmethod=0
Could not converge to DC with sources off!
Starting source stepping with srcstepmethod=1
Could not converge to DC with sources off!
Pseudo Transient failed in finding the operating point at 0 s.
Trouble finding operating point....skipping operating point for Transient analysis.
Changing Tseed to 1e-015
Changing Tseed to 1e-017
Changing Tseed to 1e-014
Changing Tseed to 1e-018
Changing Tseed to 1e-013
Changing Tseed to 1e-019
Changing Tseed to 1e-012
Changing Tseed to 1e-020
Changing Tseed to 1e-011
Changing Tseed to 1e-021
Changing Tseed to 1e-010
Changing Tseed to 1e-022
Fatal Error: Analysis:  Time step too small; initial timepoint: cause unrecorded.

