Circuit: * C:\Users\max_l\Documents\GI\S4\APP4\Prob\S4iAPP4_prob\and3b_test.asc

WARNING: Node X1:N004 is floating.
WARNING: Node X1:N007 is floating.
WARNING: Node X1:N013 is floating.
WARNING: Node X1:N005 is floating.
WARNING: Node X1:N008 is floating.
WARNING: Node X1:N014 is floating.
WARNING: Node X1:N006 is floating.
WARNING: Node X1:N009 is floating.
WARNING: Node X1:N015 is floating.

WARNING: Less than two connections to node SEL.  This node is used by VSEL.
WARNING: Less than two connections to node X1:N004.  This node is used by M:X1:3.
WARNING: Less than two connections to node X1:N007.  This node is used by M:X1:5.
WARNING: Less than two connections to node X1:N013.  This node is used by M:X1:6.
WARNING: Less than two connections to node X1:N005.  This node is used by M:X1:9.
WARNING: Less than two connections to node X1:N008.  This node is used by M:X1:11.
WARNING: Less than two connections to node X1:N014.  This node is used by M:X1:12.
WARNING: Less than two connections to node X1:N006.  This node is used by M:X1:15.
WARNING: Less than two connections to node X1:N009.  This node is used by M:X1:17.
WARNING: Less than two connections to node X1:N015.  This node is used by M:X1:18.
Warning: Pd = 0 is less than W.
Warning: Ps = 0 is less than W.
Warning: Pd = 0 is less than W.
Warning: Ps = 0 is less than W.

Date: Mon Mar 18 11:03:57 2024
Total elapsed time: 0.079 seconds.

tnom = 27
temp = 27
method = trap
totiter = 229
traniter = 0
tranpoints = 0
accept = 0
rejected = 0
matrix size = 40
fillins = 6
solver = Normal
Matrix Compiler1: 2.47 KB object code size  0.5/0.2/[0.1]
Matrix Compiler2: 3.75 KB object code size  0.2/0.3/[0.1]

