Circuit: * Z:\home\olivier\projects\S4APP4\and3b_test.asc

WARNING: Node X1:X1:N001 is floating.
WARNING: Node X1:X1:N002 is floating.
WARNING: Node X1:X1:N003 is floating.
WARNING: Node X1:X1:N005 is floating.
WARNING: Node X1:X2:N001 is floating.
WARNING: Node X1:X2:N002 is floating.
WARNING: Node X1:X2:N003 is floating.
WARNING: Node X1:X2:N005 is floating.
WARNING: Node X1:X3:N001 is floating.
WARNING: Node X1:X3:N002 is floating.
WARNING: Node X1:X3:N003 is floating.
WARNING: Node X1:X3:N005 is floating.

WARNING: Less than two connections to node SEL.  This node is used by VSEL.
WARNING: Less than two connections to node X1:X1:N001.  This node is used by M:X1:X1:1.
WARNING: Less than two connections to node X1:X1:N002.  This node is used by M:X1:X1:3.
WARNING: Less than two connections to node X1:X1:N003.  This node is used by M:X1:X1:2.
WARNING: Less than two connections to node X1:X1:N005.  This node is used by M:X1:X1:4.
WARNING: Less than two connections to node X1:X2:N001.  This node is used by M:X1:X2:1.
WARNING: Less than two connections to node X1:X2:N002.  This node is used by M:X1:X2:3.
WARNING: Less than two connections to node X1:X2:N003.  This node is used by M:X1:X2:2.
WARNING: Less than two connections to node X1:X2:N005.  This node is used by M:X1:X2:4.
WARNING: Less than two connections to node X1:X3:N001.  This node is used by M:X1:X3:1.
WARNING: Less than two connections to node X1:X3:N002.  This node is used by M:X1:X3:3.
WARNING: Less than two connections to node X1:X3:N003.  This node is used by M:X1:X3:2.
WARNING: Less than two connections to node X1:X3:N005.  This node is used by M:X1:X3:4.

Date: Tue Mar 19 21:44:46 2024
Total elapsed time: 0.166 seconds.

tnom = 27
temp = 27
method = trap
totiter = 162
traniter = 0
tranpoints = 0
accept = 0
rejected = 0
matrix size = 43
fillins = 42
solver = Normal
Matrix Compiler1:     253 opcodes  1.3/[0.5]/0.6
Matrix Compiler2: 4.76 KB object code size  0.5/0.6/[0.5]

