Circuit: * Z:\home\olivier\projects\S4APP4\mux2x3b_test.asc

WARNING: Node X2:X2:N002 is floating.
WARNING: Node X2:X2:N001 is floating.
WARNING: Node X2:X1:N001 is floating.
WARNING: Node X2:X1:N002 is floating.
WARNING: Node X2:X1:N003 is floating.
WARNING: Node X2:X1:N005 is floating.
WARNING: Node X2:X5:N001 is floating.
WARNING: Node X2:X5:N002 is floating.
WARNING: Node X2:X5:N003 is floating.
WARNING: Node X2:X5:N005 is floating.
WARNING: Node X2:X8:N002 is floating.
WARNING: Node X2:X8:N001 is floating.
WARNING: Node X2:X10:N001 is floating.
WARNING: Node X2:X10:N002 is floating.
WARNING: Node X2:X10:N003 is floating.
WARNING: Node X2:X10:N005 is floating.
WARNING: Node X2:X12:N001 is floating.
WARNING: Node X2:X12:N002 is floating.
WARNING: Node X2:X12:N003 is floating.
WARNING: Node X2:X12:N005 is floating.
WARNING: Node X2:X15:N002 is floating.
WARNING: Node X2:X15:N001 is floating.
WARNING: Node X2:X17:N001 is floating.
WARNING: Node X2:X17:N002 is floating.
WARNING: Node X2:X17:N003 is floating.
WARNING: Node X2:X17:N005 is floating.
WARNING: Node X2:X19:N001 is floating.
WARNING: Node X2:X19:N002 is floating.
WARNING: Node X2:X19:N003 is floating.
WARNING: Node X2:X19:N005 is floating.

WARNING: Less than two connections to node X2:X2:N002.  This node is used by M:X2:X2:1.
WARNING: Less than two connections to node X2:X2:N001.  This node is used by M:X2:X2:4.
WARNING: Less than two connections to node X2:X1:N001.  This node is used by M:X2:X1:1.
WARNING: Less than two connections to node X2:X1:N002.  This node is used by M:X2:X1:3.
WARNING: Less than two connections to node X2:X1:N003.  This node is used by M:X2:X1:2.
WARNING: Less than two connections to node X2:X1:N005.  This node is used by M:X2:X1:4.
WARNING: Less than two connections to node X2:X5:N001.  This node is used by M:X2:X5:1.
WARNING: Less than two connections to node X2:X5:N002.  This node is used by M:X2:X5:3.
WARNING: Less than two connections to node X2:X5:N003.  This node is used by M:X2:X5:2.
WARNING: Less than two connections to node X2:X5:N005.  This node is used by M:X2:X5:4.
WARNING: Less than two connections to node X2:X8:N002.  This node is used by M:X2:X8:1.
WARNING: Less than two connections to node X2:X8:N001.  This node is used by M:X2:X8:4.
WARNING: Less than two connections to node X2:X10:N001.  This node is used by M:X2:X10:1.
WARNING: Less than two connections to node X2:X10:N002.  This node is used by M:X2:X10:3.
WARNING: Less than two connections to node X2:X10:N003.  This node is used by M:X2:X10:2.
WARNING: Less than two connections to node X2:X10:N005.  This node is used by M:X2:X10:4.
WARNING: Less than two connections to node X2:X12:N001.  This node is used by M:X2:X12:1.
WARNING: Less than two connections to node X2:X12:N002.  This node is used by M:X2:X12:3.
WARNING: Less than two connections to node X2:X12:N003.  This node is used by M:X2:X12:2.
WARNING: Less than two connections to node X2:X12:N005.  This node is used by M:X2:X12:4.
WARNING: Less than two connections to node X2:X15:N002.  This node is used by M:X2:X15:1.
WARNING: Less than two connections to node X2:X15:N001.  This node is used by M:X2:X15:4.
WARNING: Less than two connections to node X2:X17:N001.  This node is used by M:X2:X17:1.
WARNING: Less than two connections to node X2:X17:N002.  This node is used by M:X2:X17:3.
WARNING: Less than two connections to node X2:X17:N003.  This node is used by M:X2:X17:2.
WARNING: Less than two connections to node X2:X17:N005.  This node is used by M:X2:X17:4.
WARNING: Less than two connections to node X2:X19:N001.  This node is used by M:X2:X19:1.
WARNING: Less than two connections to node X2:X19:N002.  This node is used by M:X2:X19:3.
WARNING: Less than two connections to node X2:X19:N003.  This node is used by M:X2:X19:2.
WARNING: Less than two connections to node X2:X19:N005.  This node is used by M:X2:X19:4.
Direct Newton iteration for .op point succeeded.

Date: Tue Mar 19 15:24:38 2024
Total elapsed time: 0.307 seconds.

tnom = 27
temp = 27
method = modified trap
totiter = 2504
traniter = 2484
tranpoints = 1099
accept = 1081
rejected = 18
matrix size = 82
fillins = 150
solver = Normal
Thread vector: 61.9/42.5[6] 8.9/6.5[6] 2.9/2.8[1] 0.4/1.0[1]  2592/500
Matrix Compiler1: 15.59 KB object code size  3.9/1.4/[1.2]
Matrix Compiler2: 11.49 KB object code size  1.0/0.9/[0.8]

