Circuit: * C:\Users\max_l\Documents\GI\S4\APP4\Prob\S4iAPP4_prob\nand_test.asc

WARNING: Node X9:N001 is floating.
WARNING: Node X9:N002 is floating.
WARNING: Node X9:N003 is floating.
WARNING: Node X9:N005 is floating.

WARNING: Less than two connections to node X9:N001.  This node is used by M:X9:1.
WARNING: Less than two connections to node X9:N002.  This node is used by M:X9:3.
WARNING: Less than two connections to node X9:N003.  This node is used by M:X9:2.
WARNING: Less than two connections to node X9:N005.  This node is used by M:X9:4.
Direct Newton iteration for .op point succeeded.

t1: time=3.01327e-009 at 3.01327e-009
t2: time=3.08322e-009 at 3.08322e-009
t3: time=2.08395e-009 at 2.08395e-009
t4: time=2.01355e-009 at 2.01355e-009
transition_up: abs(t2-t1)=6.99493e-011
transition_down: abs(t4-t3)=7.04013e-011

Measurement "ratio" FAIL'ed


Date: Tue Mar 19 09:35:41 2024
Total elapsed time: 0.153 seconds.

tnom = 27
temp = 27
method = modified trap
totiter = 2622
traniter = 2606
tranpoints = 1243
accept = 1177
rejected = 66
matrix size = 12
fillins = 14
solver = Normal
Matrix Compiler1: 1.35 KB object code size  0.3/0.2/[0.1]
Matrix Compiler2: 1.40 KB object code size  0.2/0.2/[0.2]

