Circuit: * Z:\home\olivier\projects\S4APP4\nand_test.asc

Direct Newton iteration for .op point succeeded.

t1: time=3.01848e-009 at 3.01848e-009
t2: time=3.15077e-009 at 3.15077e-009
t3: time=2.09249e-009 at 2.09249e-009
t4: time=2.01284e-009 at 2.01284e-009
transition_up: abs(t2-t1)=1.32284e-010
transition_down: abs(t4-t3)=7.96515e-011

Measurement "ratio" FAIL'ed


Date: Mon Mar 18 14:19:25 2024
Total elapsed time: 0.108 seconds.

tnom = 27
temp = 27
method = modified trap
totiter = 2586
traniter = 2581
tranpoints = 1244
accept = 1177
rejected = 67
matrix size = 8
fillins = 0
solver = Normal
Matrix Compiler1: 282 bytes object code size  0.2/0.1/[0.1]
Matrix Compiler2: off  [0.1]/0.2/0.1

