Circuit: * C:\Users\max_l\Documents\GI\S4\APP4\Prob\S4iAPP4_prob\nor_test.asc

Direct Newton iteration for .op point succeeded.

t1: time=2.06141e-009 at 2.06141e-009
t2: time=2.16001e-009 at 2.16001e-009
t3: time=3.15204e-009 at 3.15204e-009
t4: time=3.07982e-009 at 3.07982e-009
transition_up: abs(t2-t1)=9.85997e-011
transition_down: abs(t4-t3)=7.22175e-011

Measurement "ratio" FAIL'ed


Date: Mon Mar 18 11:59:59 2024
Total elapsed time: 0.178 seconds.

tnom = 27
temp = 27
method = modified trap
totiter = 2597
traniter = 2589
tranpoints = 1244
accept = 1177
rejected = 67
matrix size = 9
fillins = 0
solver = Normal
Matrix Compiler1: 368 bytes object code size  0.1/0.1/[0.1]
Matrix Compiler2: 743 bytes object code size  0.1/0.1/[0.1]

